Version 4
SHEET 1 880 680
WIRE 480 -288 304 -288
WIRE 688 -288 480 -288
WIRE 304 -272 304 -288
WIRE -16 -224 -224 -224
WIRE -224 -192 -224 -224
WIRE -16 -144 -16 -224
WIRE 304 -144 304 -192
WIRE -96 -96 -288 -96
WIRE 96 -64 64 -64
WIRE 224 -64 176 -64
WIRE 256 -64 224 -64
WIRE -96 -32 -128 -32
WIRE -128 0 -128 -32
WIRE -224 64 -224 -112
WIRE -16 64 -16 16
WIRE -16 64 -224 64
WIRE 304 64 304 -48
WIRE 304 64 -16 64
WIRE 304 96 304 64
WIRE 368 96 304 96
WIRE 416 96 368 96
WIRE 560 96 496 96
WIRE 688 112 688 -288
WIRE -288 128 -288 -96
WIRE -288 128 -336 128
WIRE 560 128 560 96
WIRE -704 144 -752 144
WIRE -656 144 -704 144
WIRE -464 144 -528 144
WIRE -416 144 -464 144
WIRE -288 160 -336 160
WIRE -16 176 -224 176
WIRE -224 208 -224 176
WIRE -752 256 -752 144
WIRE -16 256 -16 176
WIRE 304 256 304 96
WIRE -288 304 -288 160
WIRE -96 304 -288 304
WIRE 96 336 64 336
WIRE 224 336 176 336
WIRE 256 336 224 336
WIRE -96 368 -128 368
WIRE 304 368 304 352
WIRE -752 400 -752 336
WIRE -128 400 -128 368
WIRE -224 480 -224 288
WIRE -16 480 -16 416
WIRE -16 480 -32 480
WIRE 304 480 304 448
WIRE 688 480 688 192
FLAG 304 480 0
FLAG -16 480 0
FLAG -128 0 0
FLAG -128 400 0
FLAG 560 128 0
FLAG -752 400 0
FLAG 688 480 0
FLAG -224 480 0
FLAG 368 96 SW
FLAG -288 -96 HS_ON
FLAG -288 304 LS_ON
FLAG -464 144 PWM
FLAG -704 144 duty
FLAG 224 -64 VG_HS
FLAG 224 336 VG_LS
FLAG 480 -288 VIN
SYMBOL nmos 256 -144 R0
SYMATTR InstName MHS
SYMATTR Value IRFZ44N
SYMBOL nmos 256 256 R0
SYMATTR InstName MLS
SYMATTR Value IRFZ44N
SYMBOL Driver -32 -64 R0
WINDOW 39 28 68 Left 2
SYMATTR InstName U1
SYMATTR SpiceLine Imax=
SYMBOL Driver -32 336 R0
WINDOW 39 39 65 Left 2
SYMATTR InstName U2
SYMATTR SpiceLine Imax=
SYMBOL PWM -592 144 R0
SYMATTR InstName U3
SYMATTR SpiceLine VM=, fs=
SYMBOL dead_time -384 144 R0
SYMATTR InstName U4
SYMATTR SpiceLine Td=
SYMBOL res 80 -48 R270
WINDOW 0 32 56 VTop 2
WINDOW 3 0 56 VBottom 2
SYMATTR InstName RG_HS
SYMATTR Value 1µ
SYMBOL res 192 320 R90
WINDOW 0 0 56 VBottom 2
WINDOW 3 32 56 VTop 2
SYMATTR InstName RG_LS
SYMATTR Value 1µ
SYMBOL voltage 688 96 R0
SYMATTR InstName VBAT
SYMATTR Value ""
SYMBOL ind 288 -288 R0
WINDOW 3 36 68 Left 2
SYMATTR InstName Lp_HS
SYMATTR Value 1p
SYMBOL ind 288 352 R0
WINDOW 3 36 68 Left 2
SYMATTR InstName Lp_LS
SYMATTR Value 1p
SYMBOL current 416 96 R270
WINDOW 0 32 40 VTop 2
WINDOW 3 -32 40 VBottom 2
SYMATTR InstName ILOAD
SYMATTR Value ""
SYMBOL voltage -752 240 R0
SYMATTR InstName VDUTY
SYMATTR Value ""
SYMBOL voltage -224 192 R0
SYMATTR InstName VDRV
SYMATTR Value ""
SYMBOL voltage -224 -208 R0
SYMATTR InstName VBOOT
SYMATTR Value ""
TEXT -744 -192 Left 2 !.tran 0 30u 0
TEXT -744 -296 Left 2 !.lib switching.lib
