Version 4
SHEET 1 1124 680
WIRE -192 -208 -352 -208
WIRE 0 -208 -192 -208
WIRE -144 -160 -240 -160
WIRE 0 -160 0 -208
WIRE 0 -160 -16 -160
WIRE -144 -112 -192 -112
WIRE 0 -112 -16 -112
WIRE -240 -48 -240 -160
WIRE 0 -48 0 -112
WIRE 0 -48 -240 -48
WIRE 48 -48 0 -48
WIRE 112 -48 48 -48
WIRE 240 -48 192 -48
WIRE 368 -48 320 -48
WIRE 496 -48 448 -48
WIRE 528 -48 496 -48
WIRE 624 -48 528 -48
WIRE 768 -48 624 -48
WIRE -352 -16 -352 -208
WIRE 528 0 528 -48
WIRE 624 16 624 -48
WIRE 768 64 768 -48
WIRE 528 128 528 80
WIRE -352 240 -352 64
WIRE -192 240 -192 -112
WIRE -192 240 -352 240
WIRE 320 240 -192 240
WIRE 528 240 528 192
WIRE 528 240 320 240
WIRE 624 240 624 96
WIRE 624 240 528 240
WIRE 768 240 768 144
WIRE 768 240 624 240
WIRE 320 288 320 240
WIRE -80 320 -80 -96
WIRE -80 448 -80 400
FLAG 320 288 0
FLAG 496 -48 VREG
FLAG 48 -48 SW
FLAG -80 448 0
FLAG -192 -208 IN
DATAFLAG 736 -48 ""
SYMBOL voltage -352 -32 R0
WINDOW 123 0 0 Left 0
WINDOW 39 0 0 Left 0
SYMATTR InstName VG
SYMATTR Value 12
SYMBOL cap 512 128 R0
SYMATTR InstName C
SYMATTR Value 208.33n
SYMBOL ind 224 -32 R270
WINDOW 0 32 56 VTop 2
WINDOW 3 5 56 VBottom 2
SYMATTR InstName L
SYMATTR Value 150.3375µ
SYMBOL res 208 -64 R90
WINDOW 0 0 56 VBottom 2
WINDOW 3 32 56 VTop 2
SYMATTR InstName RON
SYMATTR Value 0.25
SYMBOL res 512 -16 R0
SYMATTR InstName RESR
SYMATTR Value 0.03
SYMBOL res 464 -64 R90
WINDOW 0 0 56 VBottom 2
WINDOW 3 32 56 VTop 2
SYMATTR InstName RL
SYMATTR Value 0.05
SYMBOL current 768 144 R180
WINDOW 0 24 80 Left 2
WINDOW 3 24 0 Left 2
WINDOW 123 24 52 Left 2
WINDOW 39 0 0 Left 0
SYMATTR InstName I1
SYMATTR Value ""
SYMATTR Value2 AC 0
SYMBOL res 608 0 R0
SYMATTR InstName RLOAD
SYMATTR Value 6
SYMBOL ccm1 -80 -128 M0
SYMATTR InstName U1
SYMBOL voltage -80 304 R0
WINDOW 3 24 152 Left 2
WINDOW 123 24 124 Left 2
WINDOW 39 0 0 Left 0
SYMATTR InstName VCTRL
SYMATTR Value 0.5275
SYMATTR Value2 AC 1
TEXT 456 -208 Left 2 !.lib average.lib
TEXT 432 -144 Left 2 !.ac dec 20 0.1 1000Meg
TEXT 520 -104 Left 2 ;.op
