Version 4
SHEET 1 1124 1024
WIRE -544 32 -704 32
WIRE -352 32 -544 32
WIRE -496 80 -592 80
WIRE -352 80 -352 32
WIRE -352 80 -368 80
WIRE -496 128 -544 128
WIRE -352 128 -368 128
WIRE -592 192 -592 80
WIRE -352 192 -352 128
WIRE -352 192 -592 192
WIRE -304 192 -352 192
WIRE -240 192 -304 192
WIRE -112 192 -160 192
WIRE 16 192 -32 192
WIRE 144 192 96 192
WIRE 176 192 144 192
WIRE 272 192 176 192
WIRE 416 192 272 192
WIRE -704 224 -704 32
WIRE 176 240 176 192
WIRE 272 256 272 192
WIRE -432 288 -432 144
WIRE 416 304 416 192
WIRE 176 368 176 320
WIRE -432 416 -432 368
WIRE -704 480 -704 304
WIRE -544 480 -544 128
WIRE -544 480 -704 480
WIRE -32 480 -544 480
WIRE 176 480 176 432
WIRE 176 480 -32 480
WIRE 272 480 272 336
WIRE 272 480 176 480
WIRE 416 480 416 384
WIRE 416 480 272 480
WIRE -32 528 -32 480
FLAG -32 528 0
FLAG 144 192 VREG
FLAG -304 192 SW
FLAG -432 416 0
FLAG -544 32 IN
DATAFLAG 384 192 ""
SYMBOL voltage -704 208 R0
WINDOW 123 0 0 Left 0
WINDOW 39 0 0 Left 0
SYMATTR InstName VG
SYMATTR Value 12
SYMBOL cap 160 368 R0
SYMATTR InstName C
SYMATTR Value 208.33n
SYMBOL ind -128 208 R270
WINDOW 0 32 56 VTop 2
WINDOW 3 5 56 VBottom 2
SYMATTR InstName L
SYMATTR Value 150.3375µ
SYMBOL res -144 176 R90
WINDOW 0 0 56 VBottom 2
WINDOW 3 32 56 VTop 2
SYMATTR InstName RON
SYMATTR Value 0.25
SYMBOL res 160 224 R0
SYMATTR InstName RESR
SYMATTR Value 0.03
SYMBOL res 112 176 R90
WINDOW 0 0 56 VBottom 2
WINDOW 3 32 56 VTop 2
SYMATTR InstName RL
SYMATTR Value 0.05
SYMBOL current 416 384 R180
WINDOW 0 24 80 Left 2
WINDOW 3 24 0 Left 2
WINDOW 123 24 52 Left 2
WINDOW 39 0 0 Left 0
SYMATTR InstName I1
SYMATTR Value ""
SYMATTR Value2 AC 0
SYMBOL res 256 240 R0
SYMATTR InstName RLOAD
SYMATTR Value 6
SYMBOL ccm1 -432 112 M0
SYMATTR InstName U1
SYMBOL voltage -432 272 R0
WINDOW 3 24 152 Left 2
WINDOW 123 24 124 Left 2
WINDOW 39 0 0 Left 0
SYMATTR Value 0.5275
SYMATTR Value2 AC 1
SYMATTR InstName VCTRL
TEXT 104 32 Left 2 !.lib average.lib
TEXT 80 96 Left 2 !.ac dec 20 0.1 1000Meg
TEXT 168 136 Left 2 ;.op
