Version 4
SHEET 1 1124 1096
WIRE -720 16 -880 16
WIRE -528 16 -720 16
WIRE -672 64 -848 64
WIRE -528 64 -528 16
WIRE -528 64 -544 64
WIRE -672 112 -816 112
WIRE -528 112 -544 112
WIRE -848 176 -848 64
WIRE -528 176 -528 112
WIRE -528 176 -848 176
WIRE -480 176 -528 176
WIRE -416 176 -480 176
WIRE -288 176 -336 176
WIRE -160 176 -208 176
WIRE 0 176 -80 176
WIRE 48 176 0 176
WIRE 80 176 48 176
WIRE 96 176 80 176
WIRE 240 176 96 176
WIRE -880 208 -880 16
WIRE -608 224 -608 128
WIRE 0 224 0 176
WIRE 96 240 96 176
WIRE -608 272 -608 224
WIRE 240 272 240 176
WIRE -736 320 -768 320
WIRE 0 352 0 304
WIRE -608 400 -608 352
WIRE -880 464 -880 288
WIRE -816 464 -816 112
WIRE -816 464 -880 464
WIRE -208 464 -816 464
WIRE 0 464 0 416
WIRE 0 464 -208 464
WIRE 96 464 96 320
WIRE 96 464 0 464
WIRE 240 464 240 352
WIRE 240 464 96 464
WIRE 48 480 48 176
WIRE -208 512 -208 464
WIRE -768 544 -768 320
WIRE -672 544 -768 544
WIRE -560 544 -592 544
WIRE -384 544 -496 544
WIRE -272 608 -336 608
WIRE -128 608 -192 608
WIRE 48 608 48 560
WIRE 48 608 -128 608
WIRE -448 624 -1040 624
WIRE -448 672 -448 624
WIRE -384 688 -384 544
WIRE -384 688 -416 688
WIRE -336 688 -336 608
WIRE -336 688 -384 688
WIRE -272 688 -336 688
WIRE -128 688 -128 608
WIRE -128 688 -208 688
WIRE 48 688 48 608
WIRE -768 704 -768 544
WIRE -480 704 -768 704
WIRE -336 720 -416 720
WIRE -336 752 -336 720
WIRE -1040 768 -1040 624
WIRE -336 784 -336 752
WIRE -448 816 -448 736
WIRE 48 816 48 768
WIRE -1040 912 -1040 848
WIRE -336 912 -336 864
FLAG -208 512 0
FLAG -480 176 SW
FLAG -608 400 0
FLAG -720 16 IN
FLAG -448 816 0
FLAG 48 816 0
FLAG -736 320 ctrl
IOPIN -736 320 Out
FLAG 80 176 VREG
FLAG -336 912 0
FLAG -336 752 VREF
FLAG -608 224 d
FLAG -1040 912 0
DATAFLAG 176 176 ""
SYMBOL voltage -880 192 R0
WINDOW 123 24 124 Left 2
WINDOW 39 0 0 Left 0
SYMATTR Value2 AC 0
SYMATTR InstName VG
SYMATTR Value 13.5
SYMBOL cap -16 352 R0
SYMATTR InstName C
SYMATTR Value 22µ
SYMBOL ind -304 192 R270
WINDOW 0 32 56 VTop 2
WINDOW 3 5 56 VBottom 2
SYMATTR InstName L
SYMATTR Value 4.7µ
SYMBOL res -320 160 R90
WINDOW 0 0 56 VBottom 2
WINDOW 3 32 56 VTop 2
SYMATTR InstName RON
SYMATTR Value 0.18
SYMBOL res -16 208 R0
SYMATTR InstName RESR
SYMATTR Value 0.01
SYMBOL res -64 160 R90
WINDOW 0 0 56 VBottom 2
WINDOW 3 32 56 VTop 2
SYMATTR InstName RL
SYMATTR Value 0.02
SYMBOL res 80 224 R0
SYMATTR InstName RLOAD
SYMATTR Value 10k
SYMBOL ccm1 -608 96 M0
SYMATTR InstName U1
SYMBOL OpAmps\\LT1215 -448 640 M0
SYMATTR InstName U2
SYMBOL voltage -336 768 R0
WINDOW 123 24 124 Left 2
WINDOW 39 0 0 Left 0
SYMATTR InstName V1
SYMATTR Value 1
SYMBOL cap -208 672 R90
WINDOW 0 0 32 VBottom 2
WINDOW 3 32 32 VTop 2
SYMATTR InstName C1
SYMATTR Value 82.5p
SYMBOL res -176 592 R90
WINDOW 0 0 56 VBottom 2
WINDOW 3 32 56 VTop 2
SYMATTR InstName R1
SYMATTR Value 120k
SYMBOL res 32 464 R0
SYMATTR InstName RB1
SYMATTR Value 62.11k
SYMBOL res 32 672 R0
SYMATTR InstName RB2
SYMATTR Value 10k
SYMBOL res -576 528 R90
WINDOW 0 0 56 VBottom 2
WINDOW 3 32 56 VTop 2
SYMATTR InstName R4
SYMATTR Value 234k
SYMBOL cap -496 528 R90
WINDOW 0 0 32 VBottom 2
WINDOW 3 32 32 VTop 2
SYMATTR InstName C2
SYMATTR Value 113.35p
SYMBOL bv -608 256 R0
SYMATTR InstName B1
SYMATTR Value V=limit(v(ctrl),0.05,0.9)
SYMBOL voltage -1040 752 R0
WINDOW 123 0 0 Left 0
WINDOW 39 0 0 Left 0
SYMATTR InstName V3
SYMATTR Value 13.5
SYMBOL current 240 352 R180
WINDOW 0 -33 88 Left 2
WINDOW 3 -377 88 Left 2
WINDOW 123 -93 46 Left 2
WINDOW 39 0 0 Left 0
SYMATTR InstName I1
SYMATTR Value ""
SYMATTR Value2 AC 0
TEXT -104 24 Left 2 !.lib average.lib
TEXT -104 104 Left 2 !.op
TEXT -104 64 Left 2 !;ac dec 200 1 1MEG
TEXT -104 -24 Left 2 ;.tran 0 200u 0 10n uic
TEXT 296 360 Left 2 ;PULSE(0 1 150u 1u 1u 25u 200u)
